


@<TRIPOS>MOLECULE
ASC1062566_1_i001_000
  37   38    0    0    0
SMALL
NO_CHARGES
@<TRIPOS>ATOM
1    C1        6.4175   10.3779   42.2802  C.3   
2    C2        7.8644   13.1659   42.1573  C.3   
3    C3        7.1858   11.8407   46.7360  C.2   
4    C4        7.7299   16.9434   44.7590  C.3   
5    C5        6.5706   16.7424   43.7689  C.3   
6    C6        8.1336   15.5149   45.1719  C.3   
7    C7        5.9895   15.3677   44.1372  C.3   
8    C8        7.8972   10.6835   42.6080  C.3   
9    C9        8.5720   10.2977   45.6385  C.1   
10   C10       7.8394   11.3747   45.6051  C.2   
11   C11       6.6896   13.0938   46.4412  C.2   
12   C12       7.0217   13.3645   45.1095  C.2   
13   C13       8.2163   12.0920   43.2321  C.3   
14   N14       6.1154   13.8983   47.3509  N.pl3 
15   N15       9.2366    9.3531   45.6737  N.1   
16   N16       7.6815   12.2787   44.5868  N.pl3 
17   N17       7.0978   14.6522   44.6807  N.3   
18   H18       6.3040    9.3237   42.0083  H     
19   H19       5.7886   10.5934   43.1465  H     
20   H20       6.0871   10.9813   41.4262  H     
21   H21       6.7853   13.2312   42.0234  H     
22   H22       8.2471   14.1430   42.4477  H     
23   H23       8.3173   12.9240   41.1902  H     
24   H24       7.1664   11.3984   47.6580  H     
25   H25       8.5615   17.4834   44.2934  H     
26   H26       7.3848   17.5122   45.6294  H     
27   H27       5.8248   17.5380   43.8485  H     
28   H28       6.9601   16.7256   42.7451  H     
29   H29       9.0945   15.2435   44.7300  H     
30   H30       8.2283   15.4574   46.2634  H     
31   H31       5.1907   15.4714   44.8785  H     
32   H32       5.5912   14.8790   43.2458  H     
33   H33       8.2611    9.9102   43.2861  H     
34   H34       8.4643   10.5595   41.6815  H     
35   H35       9.3046   12.1325   43.3445  H     
36   H36       5.9970   13.5871   48.2666  H     
37   H37       5.8012   14.7831   47.1055  H     
@<TRIPOS>BOND
     1    1    8 1
     2    1   18 1
     3    1   19 1
     4    1   20 1
     5    2   13 1
     6    2   21 1
     7    2   22 1
     8    2   23 1
     9    3   10 2
    10    3   11 1
    11    3   24 1
    12    4    5 1
    13    4    6 1
    14    4   25 1
    15    4   26 1
    16    5    7 1
    17    5   27 1
    18    5   28 1
    19    6   17 1
    20    6   29 1
    21    6   30 1
    22    7   17 1
    23    7   31 1
    24    7   32 1
    25    8   13 1
    26    8   33 1
    27    8   34 1
    28    9   10 1
    29    9   15 3
    30   10   16 1
    31   11   12 2
    32   11   14 1
    33   12   16 1
    34   12   17 1
    35   13   16 1
    36   13   35 1
    37   14   36 1
    38   14   37 1
@<TRIPOS>PROPERTY_DATA
  Total_Score	| 6.2256
  Crash		| -1.0350
  Polar		| 2.2594




@<TRIPOS>MOLECULE
ASC1062566_1_i001_000
  37   38    0    0    0
SMALL
NO_CHARGES
@<TRIPOS>ATOM
1    C1        6.4175   10.3779   42.2802  C.3   
2    C2        7.8644   13.1659   42.1573  C.3   
3    C3        7.1858   11.8407   46.7360  C.2   
4    C4        7.7299   16.9434   44.7590  C.3   
5    C5        6.5706   16.7424   43.7689  C.3   
6    C6        8.1336   15.5149   45.1719  C.3   
7    C7        5.9895   15.3677   44.1372  C.3   
8    C8        7.8972   10.6835   42.6080  C.3   
9    C9        8.5720   10.2977   45.6385  C.1   
10   C10       7.8394   11.3747   45.6051  C.2   
11   C11       6.6896   13.0938   46.4412  C.2   
12   C12       7.0217   13.3645   45.1095  C.2   
13   C13       8.2163   12.0920   43.2321  C.3   
14   N14       6.1154   13.8983   47.3509  N.pl3 
15   N15       9.2366    9.3531   45.6737  N.1   
16   N16       7.6815   12.2787   44.5868  N.pl3 
17   N17       7.0978   14.6522   44.6807  N.3   
18   H18       6.3040    9.3237   42.0083  H     
19   H19       5.7886   10.5934   43.1465  H     
20   H20       6.0871   10.9813   41.4262  H     
21   H21       6.7853   13.2312   42.0234  H     
22   H22       8.2471   14.1430   42.4477  H     
23   H23       8.3173   12.9240   41.1902  H     
24   H24       7.1664   11.3984   47.6580  H     
25   H25       8.5615   17.4834   44.2934  H     
26   H26       7.3848   17.5122   45.6294  H     
27   H27       5.8248   17.5380   43.8485  H     
28   H28       6.9601   16.7256   42.7451  H     
29   H29       9.0945   15.2435   44.7300  H     
30   H30       8.2283   15.4574   46.2634  H     
31   H31       5.1907   15.4714   44.8785  H     
32   H32       5.5912   14.8790   43.2458  H     
33   H33       8.2611    9.9102   43.2861  H     
34   H34       8.4643   10.5595   41.6815  H     
35   H35       9.3046   12.1325   43.3445  H     
36   H36       5.9970   13.5871   48.2666  H     
37   H37       5.8012   14.7831   47.1055  H     
@<TRIPOS>BOND
     1    1    8 1
     2    1   18 1
     3    1   19 1
     4    1   20 1
     5    2   13 1
     6    2   21 1
     7    2   22 1
     8    2   23 1
     9    3   10 2
    10    3   11 1
    11    3   24 1
    12    4    5 1
    13    4    6 1
    14    4   25 1
    15    4   26 1
    16    5    7 1
    17    5   27 1
    18    5   28 1
    19    6   17 1
    20    6   29 1
    21    6   30 1
    22    7   17 1
    23    7   31 1
    24    7   32 1
    25    8   13 1
    26    8   33 1
    27    8   34 1
    28    9   10 1
    29    9   15 3
    30   10   16 1
    31   11   12 2
    32   11   14 1
    33   12   16 1
    34   12   17 1
    35   13   16 1
    36   13   35 1
    37   14   36 1
    38   14   37 1
@<TRIPOS>PROPERTY_DATA
  Total_Score	| 6.2256
  Crash		| -1.0350
  Polar		| 2.2594




@<TRIPOS>MOLECULE
ASC1062566_1_i001_000
  37   38    0    0    0
SMALL
NO_CHARGES
@<TRIPOS>ATOM
1    C1        6.4175   10.3779   42.2802  C.3   
2    C2        7.8644   13.1659   42.1573  C.3   
3    C3        7.1858   11.8407   46.7360  C.2   
4    C4        7.7299   16.9434   44.7590  C.3   
5    C5        6.5706   16.7424   43.7689  C.3   
6    C6        8.1336   15.5149   45.1719  C.3   
7    C7        5.9895   15.3677   44.1372  C.3   
8    C8        7.8972   10.6835   42.6080  C.3   
9    C9        8.5720   10.2977   45.6385  C.1   
10   C10       7.8394   11.3747   45.6051  C.2   
11   C11       6.6896   13.0938   46.4412  C.2   
12   C12       7.0217   13.3645   45.1095  C.2   
13   C13       8.2163   12.0920   43.2321  C.3   
14   N14       6.1154   13.8983   47.3509  N.pl3 
15   N15       9.2366    9.3531   45.6737  N.1   
16   N16       7.6815   12.2787   44.5868  N.pl3 
17   N17       7.0978   14.6522   44.6807  N.3   
18   H18       6.3040    9.3237   42.0083  H     
19   H19       5.7886   10.5934   43.1465  H     
20   H20       6.0871   10.9813   41.4262  H     
21   H21       6.7853   13.2312   42.0234  H     
22   H22       8.2471   14.1430   42.4477  H     
23   H23       8.3173   12.9240   41.1902  H     
24   H24       7.1664   11.3984   47.6580  H     
25   H25       8.5615   17.4834   44.2934  H     
26   H26       7.3848   17.5122   45.6294  H     
27   H27       5.8248   17.5380   43.8485  H     
28   H28       6.9601   16.7256   42.7451  H     
29   H29       9.0945   15.2435   44.7300  H     
30   H30       8.2283   15.4574   46.2634  H     
31   H31       5.1907   15.4714   44.8785  H     
32   H32       5.5912   14.8790   43.2458  H     
33   H33       8.2611    9.9102   43.2861  H     
34   H34       8.4643   10.5595   41.6815  H     
35   H35       9.3046   12.1325   43.3445  H     
36   H36       5.9970   13.5871   48.2666  H     
37   H37       5.8012   14.7831   47.1055  H     
@<TRIPOS>BOND
     1    1    8 1
     2    1   18 1
     3    1   19 1
     4    1   20 1
     5    2   13 1
     6    2   21 1
     7    2   22 1
     8    2   23 1
     9    3   10 2
    10    3   11 1
    11    3   24 1
    12    4    5 1
    13    4    6 1
    14    4   25 1
    15    4   26 1
    16    5    7 1
    17    5   27 1
    18    5   28 1
    19    6   17 1
    20    6   29 1
    21    6   30 1
    22    7   17 1
    23    7   31 1
    24    7   32 1
    25    8   13 1
    26    8   33 1
    27    8   34 1
    28    9   10 1
    29    9   15 3
    30   10   16 1
    31   11   12 2
    32   11   14 1
    33   12   16 1
    34   12   17 1
    35   13   16 1
    36   13   35 1
    37   14   36 1
    38   14   37 1
@<TRIPOS>PROPERTY_DATA
  Total_Score	| 6.2256
  Crash		| -1.0350
  Polar		| 2.2594




@<TRIPOS>MOLECULE
ASC1062566_1_i001_000
  37   38    0    0    0
SMALL
NO_CHARGES
@<TRIPOS>ATOM
1    C1        6.4175   10.3779   42.2802  C.3   
2    C2        7.8644   13.1659   42.1573  C.3   
3    C3        7.1858   11.8407   46.7360  C.2   
4    C4        7.7299   16.9434   44.7590  C.3   
5    C5        6.5706   16.7424   43.7689  C.3   
6    C6        8.1336   15.5149   45.1719  C.3   
7    C7        5.9895   15.3677   44.1372  C.3   
8    C8        7.8972   10.6835   42.6080  C.3   
9    C9        8.5720   10.2977   45.6385  C.1   
10   C10       7.8394   11.3747   45.6051  C.2   
11   C11       6.6896   13.0938   46.4412  C.2   
12   C12       7.0217   13.3645   45.1095  C.2   
13   C13       8.2163   12.0920   43.2321  C.3   
14   N14       6.1154   13.8983   47.3509  N.pl3 
15   N15       9.2366    9.3531   45.6737  N.1   
16   N16       7.6815   12.2787   44.5868  N.pl3 
17   N17       7.0978   14.6522   44.6807  N.3   
18   H18       6.3040    9.3237   42.0083  H     
19   H19       5.7886   10.5934   43.1465  H     
20   H20       6.0871   10.9813   41.4262  H     
21   H21       6.7853   13.2312   42.0234  H     
22   H22       8.2471   14.1430   42.4477  H     
23   H23       8.3173   12.9240   41.1902  H     
24   H24       7.1664   11.3984   47.6580  H     
25   H25       8.5615   17.4834   44.2934  H     
26   H26       7.3848   17.5122   45.6294  H     
27   H27       5.8248   17.5380   43.8485  H     
28   H28       6.9601   16.7256   42.7451  H     
29   H29       9.0945   15.2435   44.7300  H     
30   H30       8.2283   15.4574   46.2634  H     
31   H31       5.1907   15.4714   44.8785  H     
32   H32       5.5912   14.8790   43.2458  H     
33   H33       8.2611    9.9102   43.2861  H     
34   H34       8.4643   10.5595   41.6815  H     
35   H35       9.3046   12.1325   43.3445  H     
36   H36       5.9970   13.5871   48.2666  H     
37   H37       5.8012   14.7831   47.1055  H     
@<TRIPOS>BOND
     1    1    8 1
     2    1   18 1
     3    1   19 1
     4    1   20 1
     5    2   13 1
     6    2   21 1
     7    2   22 1
     8    2   23 1
     9    3   10 2
    10    3   11 1
    11    3   24 1
    12    4    5 1
    13    4    6 1
    14    4   25 1
    15    4   26 1
    16    5    7 1
    17    5   27 1
    18    5   28 1
    19    6   17 1
    20    6   29 1
    21    6   30 1
    22    7   17 1
    23    7   31 1
    24    7   32 1
    25    8   13 1
    26    8   33 1
    27    8   34 1
    28    9   10 1
    29    9   15 3
    30   10   16 1
    31   11   12 2
    32   11   14 1
    33   12   16 1
    34   12   17 1
    35   13   16 1
    36   13   35 1
    37   14   36 1
    38   14   37 1
@<TRIPOS>PROPERTY_DATA
  Total_Score	| 6.2256
  Crash		| -1.0350
  Polar		| 2.2594




@<TRIPOS>MOLECULE
ASC1062566_1_i001_000
  37   38    0    0    0
SMALL
NO_CHARGES
@<TRIPOS>ATOM
1    C1        6.4175   10.3779   42.2802  C.3   
2    C2        7.8644   13.1659   42.1573  C.3   
3    C3        7.1858   11.8407   46.7360  C.2   
4    C4        7.7299   16.9434   44.7590  C.3   
5    C5        6.5706   16.7424   43.7689  C.3   
6    C6        8.1336   15.5149   45.1719  C.3   
7    C7        5.9895   15.3677   44.1372  C.3   
8    C8        7.8972   10.6835   42.6080  C.3   
9    C9        8.5720   10.2977   45.6385  C.1   
10   C10       7.8394   11.3747   45.6051  C.2   
11   C11       6.6896   13.0938   46.4412  C.2   
12   C12       7.0217   13.3645   45.1095  C.2   
13   C13       8.2163   12.0920   43.2321  C.3   
14   N14       6.1154   13.8983   47.3509  N.pl3 
15   N15       9.2366    9.3531   45.6737  N.1   
16   N16       7.6815   12.2787   44.5868  N.pl3 
17   N17       7.0978   14.6522   44.6807  N.3   
18   H18       6.3040    9.3237   42.0083  H     
19   H19       5.7886   10.5934   43.1465  H     
20   H20       6.0871   10.9813   41.4262  H     
21   H21       6.7853   13.2312   42.0234  H     
22   H22       8.2471   14.1430   42.4477  H     
23   H23       8.3173   12.9240   41.1902  H     
24   H24       7.1664   11.3984   47.6580  H     
25   H25       8.5615   17.4834   44.2934  H     
26   H26       7.3848   17.5122   45.6294  H     
27   H27       5.8248   17.5380   43.8485  H     
28   H28       6.9601   16.7256   42.7451  H     
29   H29       9.0945   15.2435   44.7300  H     
30   H30       8.2283   15.4574   46.2634  H     
31   H31       5.1907   15.4714   44.8785  H     
32   H32       5.5912   14.8790   43.2458  H     
33   H33       8.2611    9.9102   43.2861  H     
34   H34       8.4643   10.5595   41.6815  H     
35   H35       9.3046   12.1325   43.3445  H     
36   H36       5.9970   13.5871   48.2666  H     
37   H37       5.8012   14.7831   47.1055  H     
@<TRIPOS>BOND
     1    1    8 1
     2    1   18 1
     3    1   19 1
     4    1   20 1
     5    2   13 1
     6    2   21 1
     7    2   22 1
     8    2   23 1
     9    3   10 2
    10    3   11 1
    11    3   24 1
    12    4    5 1
    13    4    6 1
    14    4   25 1
    15    4   26 1
    16    5    7 1
    17    5   27 1
    18    5   28 1
    19    6   17 1
    20    6   29 1
    21    6   30 1
    22    7   17 1
    23    7   31 1
    24    7   32 1
    25    8   13 1
    26    8   33 1
    27    8   34 1
    28    9   10 1
    29    9   15 3
    30   10   16 1
    31   11   12 2
    32   11   14 1
    33   12   16 1
    34   12   17 1
    35   13   16 1
    36   13   35 1
    37   14   36 1
    38   14   37 1
@<TRIPOS>PROPERTY_DATA
  Total_Score	| 6.2256
  Crash		| -1.0350
  Polar		| 2.2594




@<TRIPOS>MOLECULE
ASC1062566_1_i001_000
  37   38    0    0    0
SMALL
NO_CHARGES
@<TRIPOS>ATOM
1    C1        6.4175   10.3779   42.2802  C.3   
2    C2        7.8644   13.1659   42.1573  C.3   
3    C3        7.1858   11.8407   46.7360  C.2   
4    C4        7.7299   16.9434   44.7590  C.3   
5    C5        6.5706   16.7424   43.7689  C.3   
6    C6        8.1336   15.5149   45.1719  C.3   
7    C7        5.9895   15.3677   44.1372  C.3   
8    C8        7.8972   10.6835   42.6080  C.3   
9    C9        8.5720   10.2977   45.6385  C.1   
10   C10       7.8394   11.3747   45.6051  C.2   
11   C11       6.6896   13.0938   46.4412  C.2   
12   C12       7.0217   13.3645   45.1095  C.2   
13   C13       8.2163   12.0920   43.2321  C.3   
14   N14       6.1154   13.8983   47.3509  N.pl3 
15   N15       9.2366    9.3531   45.6737  N.1   
16   N16       7.6815   12.2787   44.5868  N.pl3 
17   N17       7.0978   14.6522   44.6807  N.3   
18   H18       6.3040    9.3237   42.0083  H     
19   H19       5.7886   10.5934   43.1465  H     
20   H20       6.0871   10.9813   41.4262  H     
21   H21       6.7853   13.2312   42.0234  H     
22   H22       8.2471   14.1430   42.4477  H     
23   H23       8.3173   12.9240   41.1902  H     
24   H24       7.1664   11.3984   47.6580  H     
25   H25       8.5615   17.4834   44.2934  H     
26   H26       7.3848   17.5122   45.6294  H     
27   H27       5.8248   17.5380   43.8485  H     
28   H28       6.9601   16.7256   42.7451  H     
29   H29       9.0945   15.2435   44.7300  H     
30   H30       8.2283   15.4574   46.2634  H     
31   H31       5.1907   15.4714   44.8785  H     
32   H32       5.5912   14.8790   43.2458  H     
33   H33       8.2611    9.9102   43.2861  H     
34   H34       8.4643   10.5595   41.6815  H     
35   H35       9.3046   12.1325   43.3445  H     
36   H36       5.9970   13.5871   48.2666  H     
37   H37       5.8012   14.7831   47.1055  H     
@<TRIPOS>BOND
     1    1    8 1
     2    1   18 1
     3    1   19 1
     4    1   20 1
     5    2   13 1
     6    2   21 1
     7    2   22 1
     8    2   23 1
     9    3   10 2
    10    3   11 1
    11    3   24 1
    12    4    5 1
    13    4    6 1
    14    4   25 1
    15    4   26 1
    16    5    7 1
    17    5   27 1
    18    5   28 1
    19    6   17 1
    20    6   29 1
    21    6   30 1
    22    7   17 1
    23    7   31 1
    24    7   32 1
    25    8   13 1
    26    8   33 1
    27    8   34 1
    28    9   10 1
    29    9   15 3
    30   10   16 1
    31   11   12 2
    32   11   14 1
    33   12   16 1
    34   12   17 1
    35   13   16 1
    36   13   35 1
    37   14   36 1
    38   14   37 1
@<TRIPOS>PROPERTY_DATA
  Total_Score	| 6.2256
  Crash		| -1.0350
  Polar		| 2.2594




@<TRIPOS>MOLECULE
ASC1062566_1_i001_000
  37   38    0    0    0
SMALL
NO_CHARGES
@<TRIPOS>ATOM
1    C1        6.4175   10.3779   42.2802  C.3   
2    C2        7.8644   13.1659   42.1573  C.3   
3    C3        7.1858   11.8407   46.7360  C.2   
4    C4        7.7299   16.9434   44.7590  C.3   
5    C5        6.5706   16.7424   43.7689  C.3   
6    C6        8.1336   15.5149   45.1719  C.3   
7    C7        5.9895   15.3677   44.1372  C.3   
8    C8        7.8972   10.6835   42.6080  C.3   
9    C9        8.5720   10.2977   45.6385  C.1   
10   C10       7.8394   11.3747   45.6051  C.2   
11   C11       6.6896   13.0938   46.4412  C.2   
12   C12       7.0217   13.3645   45.1095  C.2   
13   C13       8.2163   12.0920   43.2321  C.3   
14   N14       6.1154   13.8983   47.3509  N.pl3 
15   N15       9.2366    9.3531   45.6737  N.1   
16   N16       7.6815   12.2787   44.5868  N.pl3 
17   N17       7.0978   14.6522   44.6807  N.3   
18   H18       6.3040    9.3237   42.0083  H     
19   H19       5.7886   10.5934   43.1465  H     
20   H20       6.0871   10.9813   41.4262  H     
21   H21       6.7853   13.2312   42.0234  H     
22   H22       8.2471   14.1430   42.4477  H     
23   H23       8.3173   12.9240   41.1902  H     
24   H24       7.1664   11.3984   47.6580  H     
25   H25       8.5615   17.4834   44.2934  H     
26   H26       7.3848   17.5122   45.6294  H     
27   H27       5.8248   17.5380   43.8485  H     
28   H28       6.9601   16.7256   42.7451  H     
29   H29       9.0945   15.2435   44.7300  H     
30   H30       8.2283   15.4574   46.2634  H     
31   H31       5.1907   15.4714   44.8785  H     
32   H32       5.5912   14.8790   43.2458  H     
33   H33       8.2611    9.9102   43.2861  H     
34   H34       8.4643   10.5595   41.6815  H     
35   H35       9.3046   12.1325   43.3445  H     
36   H36       5.9970   13.5871   48.2666  H     
37   H37       5.8012   14.7831   47.1055  H     
@<TRIPOS>BOND
     1    1    8 1
     2    1   18 1
     3    1   19 1
     4    1   20 1
     5    2   13 1
     6    2   21 1
     7    2   22 1
     8    2   23 1
     9    3   10 2
    10    3   11 1
    11    3   24 1
    12    4    5 1
    13    4    6 1
    14    4   25 1
    15    4   26 1
    16    5    7 1
    17    5   27 1
    18    5   28 1
    19    6   17 1
    20    6   29 1
    21    6   30 1
    22    7   17 1
    23    7   31 1
    24    7   32 1
    25    8   13 1
    26    8   33 1
    27    8   34 1
    28    9   10 1
    29    9   15 3
    30   10   16 1
    31   11   12 2
    32   11   14 1
    33   12   16 1
    34   12   17 1
    35   13   16 1
    36   13   35 1
    37   14   36 1
    38   14   37 1
@<TRIPOS>PROPERTY_DATA
  Total_Score	| 6.2256
  Crash		| -1.0350
  Polar		| 2.2594




@<TRIPOS>MOLECULE
ASC1062566_1_i001_000
  37   38    0    0    0
SMALL
NO_CHARGES
@<TRIPOS>ATOM
1    C1        6.4175   10.3779   42.2802  C.3   
2    C2        7.8644   13.1659   42.1573  C.3   
3    C3        7.1858   11.8407   46.7360  C.2   
4    C4        7.7299   16.9434   44.7590  C.3   
5    C5        6.5706   16.7424   43.7689  C.3   
6    C6        8.1336   15.5149   45.1719  C.3   
7    C7        5.9895   15.3677   44.1372  C.3   
8    C8        7.8972   10.6835   42.6080  C.3   
9    C9        8.5720   10.2977   45.6385  C.1   
10   C10       7.8394   11.3747   45.6051  C.2   
11   C11       6.6896   13.0938   46.4412  C.2   
12   C12       7.0217   13.3645   45.1095  C.2   
13   C13       8.2163   12.0920   43.2321  C.3   
14   N14       6.1154   13.8983   47.3509  N.pl3 
15   N15       9.2366    9.3531   45.6737  N.1   
16   N16       7.6815   12.2787   44.5868  N.pl3 
17   N17       7.0978   14.6522   44.6807  N.3   
18   H18       6.3040    9.3237   42.0083  H     
19   H19       5.7886   10.5934   43.1465  H     
20   H20       6.0871   10.9813   41.4262  H     
21   H21       6.7853   13.2312   42.0234  H     
22   H22       8.2471   14.1430   42.4477  H     
23   H23       8.3173   12.9240   41.1902  H     
24   H24       7.1664   11.3984   47.6580  H     
25   H25       8.5615   17.4834   44.2934  H     
26   H26       7.3848   17.5122   45.6294  H     
27   H27       5.8248   17.5380   43.8485  H     
28   H28       6.9601   16.7256   42.7451  H     
29   H29       9.0945   15.2435   44.7300  H     
30   H30       8.2283   15.4574   46.2634  H     
31   H31       5.1907   15.4714   44.8785  H     
32   H32       5.5912   14.8790   43.2458  H     
33   H33       8.2611    9.9102   43.2861  H     
34   H34       8.4643   10.5595   41.6815  H     
35   H35       9.3046   12.1325   43.3445  H     
36   H36       5.9970   13.5871   48.2666  H     
37   H37       5.8012   14.7831   47.1055  H     
@<TRIPOS>BOND
     1    1    8 1
     2    1   18 1
     3    1   19 1
     4    1   20 1
     5    2   13 1
     6    2   21 1
     7    2   22 1
     8    2   23 1
     9    3   10 2
    10    3   11 1
    11    3   24 1
    12    4    5 1
    13    4    6 1
    14    4   25 1
    15    4   26 1
    16    5    7 1
    17    5   27 1
    18    5   28 1
    19    6   17 1
    20    6   29 1
    21    6   30 1
    22    7   17 1
    23    7   31 1
    24    7   32 1
    25    8   13 1
    26    8   33 1
    27    8   34 1
    28    9   10 1
    29    9   15 3
    30   10   16 1
    31   11   12 2
    32   11   14 1
    33   12   16 1
    34   12   17 1
    35   13   16 1
    36   13   35 1
    37   14   36 1
    38   14   37 1
@<TRIPOS>PROPERTY_DATA
  Total_Score	| 6.2256
  Crash		| -1.0350
  Polar		| 2.2594




@<TRIPOS>MOLECULE
ASC1062566_1_i001_000
  37   38    0    0    0
SMALL
NO_CHARGES
@<TRIPOS>ATOM
1    C1        6.4175   10.3779   42.2802  C.3   
2    C2        7.8644   13.1659   42.1573  C.3   
3    C3        7.1858   11.8407   46.7360  C.2   
4    C4        7.7299   16.9434   44.7590  C.3   
5    C5        6.5706   16.7424   43.7689  C.3   
6    C6        8.1336   15.5149   45.1719  C.3   
7    C7        5.9895   15.3677   44.1372  C.3   
8    C8        7.8972   10.6835   42.6080  C.3   
9    C9        8.5720   10.2977   45.6385  C.1   
10   C10       7.8394   11.3747   45.6051  C.2   
11   C11       6.6896   13.0938   46.4412  C.2   
12   C12       7.0217   13.3645   45.1095  C.2   
13   C13       8.2163   12.0920   43.2321  C.3   
14   N14       6.1154   13.8983   47.3509  N.pl3 
15   N15       9.2366    9.3531   45.6737  N.1   
16   N16       7.6815   12.2787   44.5868  N.pl3 
17   N17       7.0978   14.6522   44.6807  N.3   
18   H18       6.3040    9.3237   42.0083  H     
19   H19       5.7886   10.5934   43.1465  H     
20   H20       6.0871   10.9813   41.4262  H     
21   H21       6.7853   13.2312   42.0234  H     
22   H22       8.2471   14.1430   42.4477  H     
23   H23       8.3173   12.9240   41.1902  H     
24   H24       7.1664   11.3984   47.6580  H     
25   H25       8.5615   17.4834   44.2934  H     
26   H26       7.3848   17.5122   45.6294  H     
27   H27       5.8248   17.5380   43.8485  H     
28   H28       6.9601   16.7256   42.7451  H     
29   H29       9.0945   15.2435   44.7300  H     
30   H30       8.2283   15.4574   46.2634  H     
31   H31       5.1907   15.4714   44.8785  H     
32   H32       5.5912   14.8790   43.2458  H     
33   H33       8.2611    9.9102   43.2861  H     
34   H34       8.4643   10.5595   41.6815  H     
35   H35       9.3046   12.1325   43.3445  H     
36   H36       5.9970   13.5871   48.2666  H     
37   H37       5.8012   14.7831   47.1055  H     
@<TRIPOS>BOND
     1    1    8 1
     2    1   18 1
     3    1   19 1
     4    1   20 1
     5    2   13 1
     6    2   21 1
     7    2   22 1
     8    2   23 1
     9    3   10 2
    10    3   11 1
    11    3   24 1
    12    4    5 1
    13    4    6 1
    14    4   25 1
    15    4   26 1
    16    5    7 1
    17    5   27 1
    18    5   28 1
    19    6   17 1
    20    6   29 1
    21    6   30 1
    22    7   17 1
    23    7   31 1
    24    7   32 1
    25    8   13 1
    26    8   33 1
    27    8   34 1
    28    9   10 1
    29    9   15 3
    30   10   16 1
    31   11   12 2
    32   11   14 1
    33   12   16 1
    34   12   17 1
    35   13   16 1
    36   13   35 1
    37   14   36 1
    38   14   37 1
@<TRIPOS>PROPERTY_DATA
  Total_Score	| 6.2256
  Crash		| -1.0350
  Polar		| 2.2594




@<TRIPOS>MOLECULE
ASC1062566_1_i001_000
  37   38    0    0    0
SMALL
NO_CHARGES
@<TRIPOS>ATOM
1    C1        6.4175   10.3779   42.2802  C.3   
2    C2        7.8644   13.1659   42.1573  C.3   
3    C3        7.1858   11.8407   46.7360  C.2   
4    C4        7.7299   16.9434   44.7590  C.3   
5    C5        6.5706   16.7424   43.7689  C.3   
6    C6        8.1336   15.5149   45.1719  C.3   
7    C7        5.9895   15.3677   44.1372  C.3   
8    C8        7.8972   10.6835   42.6080  C.3   
9    C9        8.5720   10.2977   45.6385  C.1   
10   C10       7.8394   11.3747   45.6051  C.2   
11   C11       6.6896   13.0938   46.4412  C.2   
12   C12       7.0217   13.3645   45.1095  C.2   
13   C13       8.2163   12.0920   43.2321  C.3   
14   N14       6.1154   13.8983   47.3509  N.pl3 
15   N15       9.2366    9.3531   45.6737  N.1   
16   N16       7.6815   12.2787   44.5868  N.pl3 
17   N17       7.0978   14.6522   44.6807  N.3   
18   H18       6.3040    9.3237   42.0083  H     
19   H19       5.7886   10.5934   43.1465  H     
20   H20       6.0871   10.9813   41.4262  H     
21   H21       6.7853   13.2312   42.0234  H     
22   H22       8.2471   14.1430   42.4477  H     
23   H23       8.3173   12.9240   41.1902  H     
24   H24       7.1664   11.3984   47.6580  H     
25   H25       8.5615   17.4834   44.2934  H     
26   H26       7.3848   17.5122   45.6294  H     
27   H27       5.8248   17.5380   43.8485  H     
28   H28       6.9601   16.7256   42.7451  H     
29   H29       9.0945   15.2435   44.7300  H     
30   H30       8.2283   15.4574   46.2634  H     
31   H31       5.1907   15.4714   44.8785  H     
32   H32       5.5912   14.8790   43.2458  H     
33   H33       8.2611    9.9102   43.2861  H     
34   H34       8.4643   10.5595   41.6815  H     
35   H35       9.3046   12.1325   43.3445  H     
36   H36       5.9970   13.5871   48.2666  H     
37   H37       5.8012   14.7831   47.1055  H     
@<TRIPOS>BOND
     1    1    8 1
     2    1   18 1
     3    1   19 1
     4    1   20 1
     5    2   13 1
     6    2   21 1
     7    2   22 1
     8    2   23 1
     9    3   10 2
    10    3   11 1
    11    3   24 1
    12    4    5 1
    13    4    6 1
    14    4   25 1
    15    4   26 1
    16    5    7 1
    17    5   27 1
    18    5   28 1
    19    6   17 1
    20    6   29 1
    21    6   30 1
    22    7   17 1
    23    7   31 1
    24    7   32 1
    25    8   13 1
    26    8   33 1
    27    8   34 1
    28    9   10 1
    29    9   15 3
    30   10   16 1
    31   11   12 2
    32   11   14 1
    33   12   16 1
    34   12   17 1
    35   13   16 1
    36   13   35 1
    37   14   36 1
    38   14   37 1
@<TRIPOS>PROPERTY_DATA
  Total_Score	| 6.2256
  Crash		| -1.0350
  Polar		| 2.2594




@<TRIPOS>MOLECULE
ASC1062566_1_i001_000
  37   38    0    0    0
SMALL
NO_CHARGES
@<TRIPOS>ATOM
1    C1        6.4175   10.3779   42.2802  C.3   
2    C2        7.8644   13.1659   42.1573  C.3   
3    C3        7.1858   11.8407   46.7360  C.2   
4    C4        7.7299   16.9434   44.7590  C.3   
5    C5        6.5706   16.7424   43.7689  C.3   
6    C6        8.1336   15.5149   45.1719  C.3   
7    C7        5.9895   15.3677   44.1372  C.3   
8    C8        7.8972   10.6835   42.6080  C.3   
9    C9        8.5720   10.2977   45.6385  C.1   
10   C10       7.8394   11.3747   45.6051  C.2   
11   C11       6.6896   13.0938   46.4412  C.2   
12   C12       7.0217   13.3645   45.1095  C.2   
13   C13       8.2163   12.0920   43.2321  C.3   
14   N14       6.1154   13.8983   47.3509  N.pl3 
15   N15       9.2366    9.3531   45.6737  N.1   
16   N16       7.6815   12.2787   44.5868  N.pl3 
17   N17       7.0978   14.6522   44.6807  N.3   
18   H18       6.3040    9.3237   42.0083  H     
19   H19       5.7886   10.5934   43.1465  H     
20   H20       6.0871   10.9813   41.4262  H     
21   H21       6.7853   13.2312   42.0234  H     
22   H22       8.2471   14.1430   42.4477  H     
23   H23       8.3173   12.9240   41.1902  H     
24   H24       7.1664   11.3984   47.6580  H     
25   H25       8.5615   17.4834   44.2934  H     
26   H26       7.3848   17.5122   45.6294  H     
27   H27       5.8248   17.5380   43.8485  H     
28   H28       6.9601   16.7256   42.7451  H     
29   H29       9.0945   15.2435   44.7300  H     
30   H30       8.2283   15.4574   46.2634  H     
31   H31       5.1907   15.4714   44.8785  H     
32   H32       5.5912   14.8790   43.2458  H     
33   H33       8.2611    9.9102   43.2861  H     
34   H34       8.4643   10.5595   41.6815  H     
35   H35       9.3046   12.1325   43.3445  H     
36   H36       5.9970   13.5871   48.2666  H     
37   H37       5.8012   14.7831   47.1055  H     
@<TRIPOS>BOND
     1    1    8 1
     2    1   18 1
     3    1   19 1
     4    1   20 1
     5    2   13 1
     6    2   21 1
     7    2   22 1
     8    2   23 1
     9    3   10 2
    10    3   11 1
    11    3   24 1
    12    4    5 1
    13    4    6 1
    14    4   25 1
    15    4   26 1
    16    5    7 1
    17    5   27 1
    18    5   28 1
    19    6   17 1
    20    6   29 1
    21    6   30 1
    22    7   17 1
    23    7   31 1
    24    7   32 1
    25    8   13 1
    26    8   33 1
    27    8   34 1
    28    9   10 1
    29    9   15 3
    30   10   16 1
    31   11   12 2
    32   11   14 1
    33   12   16 1
    34   12   17 1
    35   13   16 1
    36   13   35 1
    37   14   36 1
    38   14   37 1
@<TRIPOS>PROPERTY_DATA
  Total_Score	| 6.2256
  Crash		| -1.0350
  Polar		| 2.2594




@<TRIPOS>MOLECULE
ASC1062566_1_i001_000
  37   38    0    0    0
SMALL
NO_CHARGES
@<TRIPOS>ATOM
1    C1        6.4175   10.3779   42.2802  C.3   
2    C2        7.8644   13.1659   42.1573  C.3   
3    C3        7.1858   11.8407   46.7360  C.2   
4    C4        7.7299   16.9434   44.7590  C.3   
5    C5        6.5706   16.7424   43.7689  C.3   
6    C6        8.1336   15.5149   45.1719  C.3   
7    C7        5.9895   15.3677   44.1372  C.3   
8    C8        7.8972   10.6835   42.6080  C.3   
9    C9        8.5720   10.2977   45.6385  C.1   
10   C10       7.8394   11.3747   45.6051  C.2   
11   C11       6.6896   13.0938   46.4412  C.2   
12   C12       7.0217   13.3645   45.1095  C.2   
13   C13       8.2163   12.0920   43.2321  C.3   
14   N14       6.1154   13.8983   47.3509  N.pl3 
15   N15       9.2366    9.3531   45.6737  N.1   
16   N16       7.6815   12.2787   44.5868  N.pl3 
17   N17       7.0978   14.6522   44.6807  N.3   
18   H18       6.3040    9.3237   42.0083  H     
19   H19       5.7886   10.5934   43.1465  H     
20   H20       6.0871   10.9813   41.4262  H     
21   H21       6.7853   13.2312   42.0234  H     
22   H22       8.2471   14.1430   42.4477  H     
23   H23       8.3173   12.9240   41.1902  H     
24   H24       7.1664   11.3984   47.6580  H     
25   H25       8.5615   17.4834   44.2934  H     
26   H26       7.3848   17.5122   45.6294  H     
27   H27       5.8248   17.5380   43.8485  H     
28   H28       6.9601   16.7256   42.7451  H     
29   H29       9.0945   15.2435   44.7300  H     
30   H30       8.2283   15.4574   46.2634  H     
31   H31       5.1907   15.4714   44.8785  H     
32   H32       5.5912   14.8790   43.2458  H     
33   H33       8.2611    9.9102   43.2861  H     
34   H34       8.4643   10.5595   41.6815  H     
35   H35       9.3046   12.1325   43.3445  H     
36   H36       5.9970   13.5871   48.2666  H     
37   H37       5.8012   14.7831   47.1055  H     
@<TRIPOS>BOND
     1    1    8 1
     2    1   18 1
     3    1   19 1
     4    1   20 1
     5    2   13 1
     6    2   21 1
     7    2   22 1
     8    2   23 1
     9    3   10 2
    10    3   11 1
    11    3   24 1
    12    4    5 1
    13    4    6 1
    14    4   25 1
    15    4   26 1
    16    5    7 1
    17    5   27 1
    18    5   28 1
    19    6   17 1
    20    6   29 1
    21    6   30 1
    22    7   17 1
    23    7   31 1
    24    7   32 1
    25    8   13 1
    26    8   33 1
    27    8   34 1
    28    9   10 1
    29    9   15 3
    30   10   16 1
    31   11   12 2
    32   11   14 1
    33   12   16 1
    34   12   17 1
    35   13   16 1
    36   13   35 1
    37   14   36 1
    38   14   37 1
@<TRIPOS>PROPERTY_DATA
  Total_Score	| 6.2256
  Crash		| -1.0350
  Polar		| 2.2594




@<TRIPOS>MOLECULE
ASC1062566_1_i001_000
  37   38    0    0    0
SMALL
NO_CHARGES
@<TRIPOS>ATOM
1    C1        6.4175   10.3779   42.2802  C.3   
2    C2        7.8644   13.1659   42.1573  C.3   
3    C3        7.1858   11.8407   46.7360  C.2   
4    C4        7.7299   16.9434   44.7590  C.3   
5    C5        6.5706   16.7424   43.7689  C.3   
6    C6        8.1336   15.5149   45.1719  C.3   
7    C7        5.9895   15.3677   44.1372  C.3   
8    C8        7.8972   10.6835   42.6080  C.3   
9    C9        8.5720   10.2977   45.6385  C.1   
10   C10       7.8394   11.3747   45.6051  C.2   
11   C11       6.6896   13.0938   46.4412  C.2   
12   C12       7.0217   13.3645   45.1095  C.2   
13   C13       8.2163   12.0920   43.2321  C.3   
14   N14       6.1154   13.8983   47.3509  N.pl3 
15   N15       9.2366    9.3531   45.6737  N.1   
16   N16       7.6815   12.2787   44.5868  N.pl3 
17   N17       7.0978   14.6522   44.6807  N.3   
18   H18       6.3040    9.3237   42.0083  H     
19   H19       5.7886   10.5934   43.1465  H     
20   H20       6.0871   10.9813   41.4262  H     
21   H21       6.7853   13.2312   42.0234  H     
22   H22       8.2471   14.1430   42.4477  H     
23   H23       8.3173   12.9240   41.1902  H     
24   H24       7.1664   11.3984   47.6580  H     
25   H25       8.5615   17.4834   44.2934  H     
26   H26       7.3848   17.5122   45.6294  H     
27   H27       5.8248   17.5380   43.8485  H     
28   H28       6.9601   16.7256   42.7451  H     
29   H29       9.0945   15.2435   44.7300  H     
30   H30       8.2283   15.4574   46.2634  H     
31   H31       5.1907   15.4714   44.8785  H     
32   H32       5.5912   14.8790   43.2458  H     
33   H33       8.2611    9.9102   43.2861  H     
34   H34       8.4643   10.5595   41.6815  H     
35   H35       9.3046   12.1325   43.3445  H     
36   H36       5.9970   13.5871   48.2666  H     
37   H37       5.8012   14.7831   47.1055  H     
@<TRIPOS>BOND
     1    1    8 1
     2    1   18 1
     3    1   19 1
     4    1   20 1
     5    2   13 1
     6    2   21 1
     7    2   22 1
     8    2   23 1
     9    3   10 2
    10    3   11 1
    11    3   24 1
    12    4    5 1
    13    4    6 1
    14    4   25 1
    15    4   26 1
    16    5    7 1
    17    5   27 1
    18    5   28 1
    19    6   17 1
    20    6   29 1
    21    6   30 1
    22    7   17 1
    23    7   31 1
    24    7   32 1
    25    8   13 1
    26    8   33 1
    27    8   34 1
    28    9   10 1
    29    9   15 3
    30   10   16 1
    31   11   12 2
    32   11   14 1
    33   12   16 1
    34   12   17 1
    35   13   16 1
    36   13   35 1
    37   14   36 1
    38   14   37 1
@<TRIPOS>PROPERTY_DATA
  Total_Score	| 6.2256
  Crash		| -1.0350
  Polar		| 2.2594




@<TRIPOS>MOLECULE
ASC1062566_1_i001_000
  37   38    0    0    0
SMALL
NO_CHARGES
@<TRIPOS>ATOM
1    C1        6.4175   10.3779   42.2802  C.3   
2    C2        7.8644   13.1659   42.1573  C.3   
3    C3        7.1858   11.8407   46.7360  C.2   
4    C4        7.7299   16.9434   44.7590  C.3   
5    C5        6.5706   16.7424   43.7689  C.3   
6    C6        8.1336   15.5149   45.1719  C.3   
7    C7        5.9895   15.3677   44.1372  C.3   
8    C8        7.8972   10.6835   42.6080  C.3   
9    C9        8.5720   10.2977   45.6385  C.1   
10   C10       7.8394   11.3747   45.6051  C.2   
11   C11       6.6896   13.0938   46.4412  C.2   
12   C12       7.0217   13.3645   45.1095  C.2   
13   C13       8.2163   12.0920   43.2321  C.3   
14   N14       6.1154   13.8983   47.3509  N.pl3 
15   N15       9.2366    9.3531   45.6737  N.1   
16   N16       7.6815   12.2787   44.5868  N.pl3 
17   N17       7.0978   14.6522   44.6807  N.3   
18   H18       6.3040    9.3237   42.0083  H     
19   H19       5.7886   10.5934   43.1465  H     
20   H20       6.0871   10.9813   41.4262  H     
21   H21       6.7853   13.2312   42.0234  H     
22   H22       8.2471   14.1430   42.4477  H     
23   H23       8.3173   12.9240   41.1902  H     
24   H24       7.1664   11.3984   47.6580  H     
25   H25       8.5615   17.4834   44.2934  H     
26   H26       7.3848   17.5122   45.6294  H     
27   H27       5.8248   17.5380   43.8485  H     
28   H28       6.9601   16.7256   42.7451  H     
29   H29       9.0945   15.2435   44.7300  H     
30   H30       8.2283   15.4574   46.2634  H     
31   H31       5.1907   15.4714   44.8785  H     
32   H32       5.5912   14.8790   43.2458  H     
33   H33       8.2611    9.9102   43.2861  H     
34   H34       8.4643   10.5595   41.6815  H     
35   H35       9.3046   12.1325   43.3445  H     
36   H36       5.9970   13.5871   48.2666  H     
37   H37       5.8012   14.7831   47.1055  H     
@<TRIPOS>BOND
     1    1    8 1
     2    1   18 1
     3    1   19 1
     4    1   20 1
     5    2   13 1
     6    2   21 1
     7    2   22 1
     8    2   23 1
     9    3   10 2
    10    3   11 1
    11    3   24 1
    12    4    5 1
    13    4    6 1
    14    4   25 1
    15    4   26 1
    16    5    7 1
    17    5   27 1
    18    5   28 1
    19    6   17 1
    20    6   29 1
    21    6   30 1
    22    7   17 1
    23    7   31 1
    24    7   32 1
    25    8   13 1
    26    8   33 1
    27    8   34 1
    28    9   10 1
    29    9   15 3
    30   10   16 1
    31   11   12 2
    32   11   14 1
    33   12   16 1
    34   12   17 1
    35   13   16 1
    36   13   35 1
    37   14   36 1
    38   14   37 1
@<TRIPOS>PROPERTY_DATA
  Total_Score	| 6.2256
  Crash		| -1.0350
  Polar		| 2.2594




@<TRIPOS>MOLECULE
ASC1062566_1_i001_000
  37   38    0    0    0
SMALL
NO_CHARGES
@<TRIPOS>ATOM
1    C1        6.4175   10.3779   42.2802  C.3   
2    C2        7.8644   13.1659   42.1573  C.3   
3    C3        7.1858   11.8407   46.7360  C.2   
4    C4        7.7299   16.9434   44.7590  C.3   
5    C5        6.5706   16.7424   43.7689  C.3   
6    C6        8.1336   15.5149   45.1719  C.3   
7    C7        5.9895   15.3677   44.1372  C.3   
8    C8        7.8972   10.6835   42.6080  C.3   
9    C9        8.5720   10.2977   45.6385  C.1   
10   C10       7.8394   11.3747   45.6051  C.2   
11   C11       6.6896   13.0938   46.4412  C.2   
12   C12       7.0217   13.3645   45.1095  C.2   
13   C13       8.2163   12.0920   43.2321  C.3   
14   N14       6.1154   13.8983   47.3509  N.pl3 
15   N15       9.2366    9.3531   45.6737  N.1   
16   N16       7.6815   12.2787   44.5868  N.pl3 
17   N17       7.0978   14.6522   44.6807  N.3   
18   H18       6.3040    9.3237   42.0083  H     
19   H19       5.7886   10.5934   43.1465  H     
20   H20       6.0871   10.9813   41.4262  H     
21   H21       6.7853   13.2312   42.0234  H     
22   H22       8.2471   14.1430   42.4477  H     
23   H23       8.3173   12.9240   41.1902  H     
24   H24       7.1664   11.3984   47.6580  H     
25   H25       8.5615   17.4834   44.2934  H     
26   H26       7.3848   17.5122   45.6294  H     
27   H27       5.8248   17.5380   43.8485  H     
28   H28       6.9601   16.7256   42.7451  H     
29   H29       9.0945   15.2435   44.7300  H     
30   H30       8.2283   15.4574   46.2634  H     
31   H31       5.1907   15.4714   44.8785  H     
32   H32       5.5912   14.8790   43.2458  H     
33   H33       8.2611    9.9102   43.2861  H     
34   H34       8.4643   10.5595   41.6815  H     
35   H35       9.3046   12.1325   43.3445  H     
36   H36       5.9970   13.5871   48.2666  H     
37   H37       5.8012   14.7831   47.1055  H     
@<TRIPOS>BOND
     1    1    8 1
     2    1   18 1
     3    1   19 1
     4    1   20 1
     5    2   13 1
     6    2   21 1
     7    2   22 1
     8    2   23 1
     9    3   10 2
    10    3   11 1
    11    3   24 1
    12    4    5 1
    13    4    6 1
    14    4   25 1
    15    4   26 1
    16    5    7 1
    17    5   27 1
    18    5   28 1
    19    6   17 1
    20    6   29 1
    21    6   30 1
    22    7   17 1
    23    7   31 1
    24    7   32 1
    25    8   13 1
    26    8   33 1
    27    8   34 1
    28    9   10 1
    29    9   15 3
    30   10   16 1
    31   11   12 2
    32   11   14 1
    33   12   16 1
    34   12   17 1
    35   13   16 1
    36   13   35 1
    37   14   36 1
    38   14   37 1
@<TRIPOS>PROPERTY_DATA
  Total_Score	| 6.2256
  Crash		| -1.0350
  Polar		| 2.2594




@<TRIPOS>MOLECULE
ASC1062566_1_i001_000
  37   38    0    0    0
SMALL
NO_CHARGES
@<TRIPOS>ATOM
1    C1        6.4175   10.3779   42.2802  C.3   
2    C2        7.8644   13.1659   42.1573  C.3   
3    C3        7.1858   11.8407   46.7360  C.2   
4    C4        7.7299   16.9434   44.7590  C.3   
5    C5        6.5706   16.7424   43.7689  C.3   
6    C6        8.1336   15.5149   45.1719  C.3   
7    C7        5.9895   15.3677   44.1372  C.3   
8    C8        7.8972   10.6835   42.6080  C.3   
9    C9        8.5720   10.2977   45.6385  C.1   
10   C10       7.8394   11.3747   45.6051  C.2   
11   C11       6.6896   13.0938   46.4412  C.2   
12   C12       7.0217   13.3645   45.1095  C.2   
13   C13       8.2163   12.0920   43.2321  C.3   
14   N14       6.1154   13.8983   47.3509  N.pl3 
15   N15       9.2366    9.3531   45.6737  N.1   
16   N16       7.6815   12.2787   44.5868  N.pl3 
17   N17       7.0978   14.6522   44.6807  N.3   
18   H18       6.3040    9.3237   42.0083  H     
19   H19       5.7886   10.5934   43.1465  H     
20   H20       6.0871   10.9813   41.4262  H     
21   H21       6.7853   13.2312   42.0234  H     
22   H22       8.2471   14.1430   42.4477  H     
23   H23       8.3173   12.9240   41.1902  H     
24   H24       7.1664   11.3984   47.6580  H     
25   H25       8.5615   17.4834   44.2934  H     
26   H26       7.3848   17.5122   45.6294  H     
27   H27       5.8248   17.5380   43.8485  H     
28   H28       6.9601   16.7256   42.7451  H     
29   H29       9.0945   15.2435   44.7300  H     
30   H30       8.2283   15.4574   46.2634  H     
31   H31       5.1907   15.4714   44.8785  H     
32   H32       5.5912   14.8790   43.2458  H     
33   H33       8.2611    9.9102   43.2861  H     
34   H34       8.4643   10.5595   41.6815  H     
35   H35       9.3046   12.1325   43.3445  H     
36   H36       5.9970   13.5871   48.2666  H     
37   H37       5.8012   14.7831   47.1055  H     
@<TRIPOS>BOND
     1    1    8 1
     2    1   18 1
     3    1   19 1
     4    1   20 1
     5    2   13 1
     6    2   21 1
     7    2   22 1
     8    2   23 1
     9    3   10 2
    10    3   11 1
    11    3   24 1
    12    4    5 1
    13    4    6 1
    14    4   25 1
    15    4   26 1
    16    5    7 1
    17    5   27 1
    18    5   28 1
    19    6   17 1
    20    6   29 1
    21    6   30 1
    22    7   17 1
    23    7   31 1
    24    7   32 1
    25    8   13 1
    26    8   33 1
    27    8   34 1
    28    9   10 1
    29    9   15 3
    30   10   16 1
    31   11   12 2
    32   11   14 1
    33   12   16 1
    34   12   17 1
    35   13   16 1
    36   13   35 1
    37   14   36 1
    38   14   37 1
@<TRIPOS>PROPERTY_DATA
  Total_Score	| 6.2256
  Crash		| -1.0350
  Polar		| 2.2594

